<?xml version="1.0" encoding="iso-8859-1"?>
<configuration xmls:xsi="http://www.w3.org/2001/XMLSchema-instance" xsi:noNamescpaceSchemaLocation="http://sumo.sf.net/xsd/sumoConfiguration.xsd">


<input>
	<net-file value="map.net.xml"/>
	<route-files value="map.rou.xml"/>
</input>

<time>
	<begin value="0"/>
	<end value="06400"/>
</time>

</configuration>
