<?xml version="1.0" encoding="UTF-8"?>

<!-- generated on 2024-09-09 14:31:34 by Eclipse SUMO netconvert Version 1.20.0
<configuration xmlns:xsi="http://www.w3.org/2001/XMLSchema-instance" xsi:noNamespaceSchemaLocation="http://sumo.dlr.de/xsd/netconvertConfiguration.xsd">

    <input>
        <osm-files value="map.osm"/>
    </input>

    <output>
        <output-file value="map.net.xml"/>
    </output>

    <projection>
        <proj.utm value="true"/>
    </projection>

    <processing>
        <geometry.remove value="true"/>
        <roundabouts.guess value="true"/>
    </processing>

    <tls_building>
        <tls.discard-simple value="true"/>
        <tls.join value="true"/>
        <tls.guess-signals value="true"/>
    </tls_building>

    <ramp_guessing>
        <ramps.guess value="true"/>
    </ramp_guessing>

    <junctions>
        <junctions.join value="true"/>
    </junctions>

</configuration>
-->

<net version="1.20" junctionCornerDetail="5" limitTurnSpeed="5.50" xmlns:xsi="http://www.w3.org/2001/XMLSchema-instance" xsi:noNamespaceSchemaLocation="http://sumo.dlr.de/xsd/net_file.xsd">

    <location netOffset="-381198.88,-2045233.58" convBoundary="0.00,0.00,2316.77,2673.55" origBoundary="73.852213,18.494256,73.896525,18.518389" projParameter="+proj=utm +zone=43 +ellps=WGS84 +datum=WGS84 +units=m +no_defs"/>

    <type id="highway.footway" priority="1" numLanes="1" speed="2.78" allow="pedestrian" oneway="1" width="2.00"/>
    <type id="highway.living_street" priority="2" numLanes="1" speed="2.78" disallow="tram rail_urban rail rail_electric rail_fast ship container cable_car subway aircraft wheelchair scooter drone" oneway="0"/>
    <type id="highway.primary" priority="12" numLanes="2" speed="27.78" disallow="tram rail_urban rail rail_electric rail_fast ship container cable_car subway aircraft wheelchair scooter drone" oneway="0"/>
    <type id="highway.residential" priority="3" numLanes="1" speed="13.89" disallow="tram rail_urban rail rail_electric rail_fast ship container cable_car subway aircraft wheelchair scooter drone" oneway="0"/>
    <type id="highway.secondary" priority="11" numLanes="1" speed="27.78" disallow="tram rail_urban rail rail_electric rail_fast ship container cable_car subway aircraft wheelchair scooter drone" oneway="0"/>
    <type id="highway.service" priority="1" numLanes="1" speed="5.56" allow="pedestrian delivery bicycle" oneway="0"/>
    <type id="highway.steps" priority="1" numLanes="1" speed="1.39" allow="pedestrian" oneway="1" width="2.00"/>
    <type id="highway.tertiary" priority="10" numLanes="1" speed="22.22" disallow="tram rail_urban rail rail_electric rail_fast ship container cable_car subway aircraft wheelchair scooter drone" oneway="0"/>
    <type id="highway.trunk" priority="13" numLanes="2" speed="27.78" disallow="pedestrian bicycle tram rail_urban rail rail_electric rail_fast ship container cable_car subway aircraft wheelchair scooter drone" oneway="0"/>

    <edge id=":10222749278_0" function="internal">
        <lane id=":10222749278_0_0" index="0" disallow="pedestrian bicycle tram rail_urban rail rail_electric rail_fast ship container cable_car subway aircraft wheelchair scooter drone" speed="6.36" length="9.04" shape="539.25,1398.53 539.97,1400.92 541.28,1402.46 543.19,1403.12 545.68,1402.93"/>
    </edge>
    <edge id=":10222749278_1" function="internal">
        <lane id=":10222749278_1_0" index="0" disallow="tram rail_urban rail rail_electric rail_fast ship container cable_car subway aircraft wheelchair scooter drone" speed="3.65" length="4.67" shape="539.25,1398.53 538.64,1399.84 537.91,1400.35 537.05,1400.07 536.08,1399.01"/>
    </edge>
    <edge id=":10222749278_2" function="internal">
        <lane id=":10222749278_2_0" index="0" disallow="pedestrian bicycle tram rail_urban rail rail_electric rail_fast ship container cable_car subway aircraft wheelchair scooter drone" speed="6.80" length="9.40" shape="531.62,1406.09 533.91,1405.20 535.41,1403.72 536.14,1401.66 536.08,1399.01"/>
    </edge>
    <edge id=":10222749278_3" function="internal">
        <lane id=":10222749278_3_0" index="0" disallow="pedestrian bicycle tram rail_urban rail rail_electric rail_fast ship container cable_car subway aircraft wheelchair scooter drone" speed="27.78" length="14.42" shape="531.62,1406.09 545.68,1402.93"/>
        <lane id=":10222749278_3_1" index="1" disallow="pedestrian bicycle tram rail_urban rail rail_electric rail_fast ship container cable_car subway aircraft wheelchair scooter drone" speed="27.78" length="14.42" shape="532.32,1409.22 546.39,1406.05"/>
    </edge>
    <edge id=":10222749287_0" function="internal">
        <lane id=":10222749287_0_0" index="0" disallow="tram rail_urban rail rail_electric rail_fast ship container cable_car subway aircraft wheelchair scooter drone" speed="3.65" length="4.67" shape="692.01,1328.64 693.29,1329.29 693.79,1330.04 693.48,1330.88 692.38,1331.82"/>
    </edge>
    <edge id=":10222749288_0" function="internal">
        <lane id=":10222749288_0_0" index="0" allow="delivery" speed="4.98" length="5.07" shape="606.07,1386.06 606.49,1387.40 607.23,1388.25 608.31,1388.62 609.70,1388.51"/>
    </edge>
    <edge id=":10222749288_1" function="internal">
        <lane id=":10222749288_1_0" index="0" allow="pedestrian delivery bicycle" speed="3.65" length="4.67" shape="606.07,1386.06 605.47,1387.37 604.75,1387.90 603.89,1387.63 602.91,1386.58"/>
    </edge>
    <edge id=":10222749288_2" function="internal">
        <lane id=":10222749288_2_0" index="0" allow="delivery" speed="5.24" length="5.24" shape="600.52,1390.58 601.77,1390.08 602.59,1389.25 602.97,1388.08 602.91,1386.58"/>
    </edge>
    <edge id=":10222749288_3" function="internal">
        <lane id=":10222749288_3_0" index="0" disallow="pedestrian bicycle tram rail_urban rail rail_electric rail_fast ship container cable_car subway aircraft wheelchair scooter drone" speed="27.78" length="9.41" shape="600.52,1390.58 609.70,1388.51"/>
        <lane id=":10222749288_3_1" index="1" disallow="pedestrian bicycle tram rail_urban rail rail_electric rail_fast ship container cable_car subway aircraft wheelchair scooter drone" speed="27.78" length="9.41" shape="601.23,1393.70 610.41,1391.63"/>
    </edge>
    <edge id=":10222749289_0" function="internal">
        <lane id=":10222749289_0_0" index="0" allow="pedestrian delivery bicycle" speed="5.20" length="5.19" shape="596.29,1346.48 595.86,1345.07 595.13,1344.11 594.09,1343.60 592.74,1343.55"/>
    </edge>
    <edge id=":10222749289_1" function="internal">
        <lane id=":10222749289_1_0" index="0" allow="pedestrian delivery bicycle" speed="6.82" length="10.39" shape="596.29,1346.48 596.23,1343.61 597.11,1341.46 598.94,1340.01 601.71,1339.27"/>
    </edge>
    <edge id=":10222749289_2" function="internal">
        <lane id=":10222749289_2_0" index="0" allow="pedestrian delivery bicycle" speed="3.65" length="4.67" shape="596.29,1346.48 596.88,1345.16 597.61,1344.64 598.46,1344.90 599.45,1345.96"/>
    </edge>
    <edge id=":10222749289_3" function="internal">
        <lane id=":10222749289_3_0" index="0" allow="pedestrian delivery bicycle" speed="4.99" length="5.06" shape="602.08,1342.45 600.74,1342.81 599.85,1343.51 599.42,1344.56 599.45,1345.96"/>
    </edge>
    <edge id=":10222749289_4" function="internal">
        <lane id=":10222749289_4_0" index="0" disallow="tram rail_urban rail rail_electric rail_fast ship container cable_car subway aircraft wheelchair scooter drone" speed="13.89" length="9.41" shape="602.08,1342.45 592.74,1343.55"/>
    </edge>
    <edge id=":10222749289_5" function="internal">
        <lane id=":10222749289_5_0" index="0" disallow="tram rail_urban rail rail_electric rail_fast ship container cable_car subway aircraft wheelchair scooter drone" speed="13.89" length="9.41" shape="592.37,1340.38 601.71,1339.27"/>
    </edge>
    <edge id=":10222749289_6" function="internal">
        <lane id=":10222749289_6_0" index="0" allow="pedestrian delivery bicycle" speed="6.98" length="3.18" shape="592.37,1340.38 595.07,1340.46 595.50,1340.65"/>
    </edge>
    <edge id=":10222749289_7" function="internal">
        <lane id=":10222749289_7_0" index="0" allow="pedestrian delivery bicycle" speed="6.98" length="7.00" shape="595.50,1340.65 597.16,1341.42 598.61,1343.25 599.45,1345.96"/>
    </edge>
    <edge id=":10222749290_0" function="internal">
        <lane id=":10222749290_0_0" index="0" disallow="pedestrian bicycle tram rail_urban rail rail_electric rail_fast ship container cable_car subway aircraft wheelchair scooter drone" speed="6.24" length="7.85" shape="588.14,1399.92 588.29,1398.45 589.27,1397.21 591.06,1396.19 593.68,1395.40"/>
    </edge>
    <edge id=":10222749290_1" function="internal">
        <lane id=":10222749290_1_0" index="0" disallow="tram rail_urban rail rail_electric rail_fast ship container cable_car subway aircraft wheelchair scooter drone" speed="3.65" length="4.67" shape="588.14,1399.92 588.74,1398.60 589.46,1398.08 590.31,1398.34 591.30,1399.39"/>
    </edge>
    <edge id=":10222749290_2" function="internal">
        <lane id=":10222749290_2_0" index="0" disallow="pedestrian bicycle tram rail_urban rail rail_electric rail_fast ship container cable_car subway aircraft wheelchair scooter drone" speed="27.78" length="9.41" shape="583.80,1394.35 592.98,1392.28"/>
        <lane id=":10222749290_2_1" index="1" disallow="pedestrian bicycle tram rail_urban rail rail_electric rail_fast ship container cable_car subway aircraft wheelchair scooter drone" speed="27.78" length="9.41" shape="584.50,1397.47 593.68,1395.40"/>
    </edge>
    <edge id=":10222749290_4" function="internal">
        <lane id=":10222749290_4_0" index="0" disallow="pedestrian bicycle tram rail_urban rail rail_electric rail_fast ship container cable_car subway aircraft wheelchair scooter drone" speed="6.02" length="7.92" shape="584.50,1397.47 587.27,1397.06 589.32,1397.25 590.67,1398.02 591.30,1399.39"/>
    </edge>
    <edge id=":10222749291_0" function="internal">
        <lane id=":10222749291_0_0" index="0" disallow="tram rail_urban rail rail_electric rail_fast ship container cable_car subway aircraft wheelchair scooter drone" speed="3.65" length="4.67" shape="597.16,1434.68 596.56,1435.99 595.84,1436.52 594.99,1436.26 594.00,1435.20"/>
    </edge>
    <edge id=":10222749292_0" function="internal">
        <lane id=":10222749292_0_0" index="0" disallow="tram rail_urban rail rail_electric rail_fast ship container cable_car subway aircraft wheelchair scooter drone" speed="27.78" length="9.40" shape="422.13,1376.13 423.06,1385.49"/>
        <lane id=":10222749292_0_1" index="1" disallow="tram rail_urban rail rail_electric rail_fast ship container cable_car subway aircraft wheelchair scooter drone" speed="27.78" length="9.40" shape="418.95,1376.45 419.87,1385.80"/>
    </edge>
    <edge id=":10222749292_2" function="internal">
        <lane id=":10222749292_2_0" index="0" disallow="tram rail_urban rail rail_electric rail_fast ship container cable_car subway aircraft wheelchair scooter drone" speed="6.10" length="7.76" shape="418.95,1376.45 419.02,1379.20 418.64,1381.22 417.79,1382.50 416.47,1383.03"/>
    </edge>
    <edge id=":10222749292_3" function="internal">
        <lane id=":10222749292_3_0" index="0" disallow="tram rail_urban rail rail_electric rail_fast ship container cable_car subway aircraft wheelchair scooter drone" speed="6.08" length="7.77" shape="416.14,1379.85 417.54,1380.10 418.63,1381.17 419.41,1383.07 419.87,1385.80"/>
    </edge>
    <edge id=":10222749292_4" function="internal">
        <lane id=":10222749292_4_0" index="0" disallow="tram rail_urban rail rail_electric rail_fast ship container cable_car subway aircraft wheelchair scooter drone" speed="3.65" length="4.67" shape="416.14,1379.85 417.42,1380.52 417.90,1381.27 417.58,1382.11 416.47,1383.03"/>
    </edge>
    <edge id=":10222749293_0" function="internal">
        <lane id=":10222749293_0_0" index="0" disallow="tram rail_urban rail rail_electric rail_fast ship container cable_car subway aircraft wheelchair scooter drone" speed="13.89" length="14.26" shape="352.49,1395.96 349.16,1382.09"/>
    </edge>
    <edge id=":10222749293_1" function="internal">
        <lane id=":10222749293_1_0" index="0" disallow="tram rail_urban rail rail_electric rail_fast ship container cable_car subway aircraft wheelchair scooter drone" speed="7.78" length="4.11" shape="352.49,1395.96 352.11,1391.87"/>
    </edge>
    <edge id=":10222749293_2" function="internal">
        <lane id=":10222749293_2_0" index="0" disallow="tram rail_urban rail rail_electric rail_fast ship container cable_car subway aircraft wheelchair scooter drone" speed="3.65" length="1.44" shape="352.49,1395.96 352.99,1394.61"/>
    </edge>
    <edge id=":10222749293_9" function="internal">
        <lane id=":10222749293_9_0" index="0" disallow="tram rail_urban rail rail_electric rail_fast ship container cable_car subway aircraft wheelchair scooter drone" speed="7.78" length="10.61" shape="352.11,1391.87 353.19,1388.80 355.72,1386.77 359.70,1385.76"/>
    </edge>
    <edge id=":10222749293_10" function="internal">
        <lane id=":10222749293_10_0" index="0" disallow="tram rail_urban rail rail_electric rail_fast ship container cable_car subway aircraft wheelchair scooter drone" speed="3.65" length="3.23" shape="352.99,1394.61 353.67,1394.03 354.54,1394.23 355.60,1395.21"/>
    </edge>
    <edge id=":10222749293_3" function="internal">
        <lane id=":10222749293_3_0" index="0" disallow="tram rail_urban rail rail_electric rail_fast ship container cable_car subway aircraft wheelchair scooter drone" speed="6.24" length="9.05" shape="360.04,1388.94 357.59,1389.56 356.03,1390.81 355.37,1392.70 355.60,1395.21"/>
    </edge>
    <edge id=":10222749293_4" function="internal">
        <lane id=":10222749293_4_0" index="0" disallow="tram rail_urban rail rail_electric rail_fast ship container cable_car subway aircraft wheelchair scooter drone" speed="8.42" length="14.25" shape="360.04,1388.94 355.98,1388.87 352.82,1387.70 350.54,1385.44 349.16,1382.09"/>
    </edge>
    <edge id=":10222749293_5" function="internal">
        <lane id=":10222749293_5_0" index="0" disallow="tram rail_urban rail rail_electric rail_fast ship container cable_car subway aircraft wheelchair scooter drone" speed="3.65" length="4.67" shape="360.04,1388.94 358.76,1388.27 358.28,1387.52 358.59,1386.68 359.70,1385.76"/>
    </edge>
    <edge id=":10222749293_6" function="internal">
        <lane id=":10222749293_6_0" index="0" disallow="tram rail_urban rail rail_electric rail_fast ship container cable_car subway aircraft wheelchair scooter drone" speed="7.01" length="9.57" shape="352.27,1381.35 353.19,1383.52 354.74,1384.98 356.91,1385.73 359.70,1385.76"/>
    </edge>
    <edge id=":10222749293_7" function="internal">
        <lane id=":10222749293_7_0" index="0" disallow="tram rail_urban rail rail_electric rail_fast ship container cable_car subway aircraft wheelchair scooter drone" speed="13.89" length="14.26" shape="352.27,1381.35 355.60,1395.21"/>
    </edge>
    <edge id=":10222749293_8" function="internal">
        <lane id=":10222749293_8_0" index="0" disallow="tram rail_urban rail rail_electric rail_fast ship container cable_car subway aircraft wheelchair scooter drone" speed="3.65" length="1.44" shape="352.27,1381.35 351.78,1382.70"/>
    </edge>
    <edge id=":10222749293_11" function="internal">
        <lane id=":10222749293_11_0" index="0" disallow="tram rail_urban rail rail_electric rail_fast ship container cable_car subway aircraft wheelchair scooter drone" speed="3.65" length="3.23" shape="351.78,1382.70 351.09,1383.28 350.22,1383.07 349.16,1382.09"/>
    </edge>
    <edge id=":10222749294_0" function="internal">
        <lane id=":10222749294_0_0" index="0" disallow="tram rail_urban rail rail_electric rail_fast ship container cable_car subway aircraft wheelchair scooter drone" speed="27.78" length="9.40" shape="420.03,1354.93 420.96,1364.29"/>
        <lane id=":10222749294_0_1" index="1" disallow="tram rail_urban rail rail_electric rail_fast ship container cable_car subway aircraft wheelchair scooter drone" speed="27.78" length="9.40" shape="416.85,1355.25 417.77,1364.60"/>
    </edge>
    <edge id=":10222749294_2" function="internal">
        <lane id=":10222749294_2_0" index="0" disallow="tram rail_urban rail rail_electric rail_fast ship container cable_car subway aircraft wheelchair scooter drone" speed="6.08" length="7.76" shape="416.85,1355.25 416.93,1358.01 416.54,1360.03 415.70,1361.30 414.38,1361.82"/>
    </edge>
    <edge id=":10222749294_3" function="internal">
        <lane id=":10222749294_3_0" index="0" disallow="tram rail_urban rail rail_electric rail_fast ship container cable_car subway aircraft wheelchair scooter drone" speed="6.08" length="7.76" shape="414.07,1358.64 415.46,1358.90 416.54,1359.98 417.31,1361.88 417.77,1364.60"/>
    </edge>
    <edge id=":10222749294_4" function="internal">
        <lane id=":10222749294_4_0" index="0" disallow="tram rail_urban rail rail_electric rail_fast ship container cable_car subway aircraft wheelchair scooter drone" speed="3.65" length="4.67" shape="414.07,1358.64 415.34,1359.32 415.82,1360.07 415.50,1360.91 414.38,1361.82"/>
    </edge>
    <edge id=":10222749299_0" function="internal">
        <lane id=":10222749299_0_0" index="0" disallow="tram rail_urban rail rail_electric rail_fast ship container cable_car subway aircraft wheelchair scooter drone" speed="27.78" length="5.00" shape="427.89,1432.93 428.43,1437.91"/>
        <lane id=":10222749299_0_1" index="1" disallow="tram rail_urban rail rail_electric rail_fast ship container cable_car subway aircraft wheelchair scooter drone" speed="27.78" length="5.00" shape="424.71,1433.28 425.25,1438.25"/>
    </edge>
    <edge id=":10222749301_0" function="internal">
        <lane id=":10222749301_0_0" index="0" disallow="tram rail_urban rail rail_electric rail_fast ship container cable_car subway aircraft wheelchair scooter drone" speed="6.27" length="8.44" shape="387.51,1438.24 386.43,1436.01 385.00,1434.66 383.23,1434.18 381.11,1434.58"/>
    </edge>
    <edge id=":10222749301_1" function="internal">
        <lane id=":10222749301_1_0" index="0" disallow="tram rail_urban rail rail_electric rail_fast ship container cable_car subway aircraft wheelchair scooter drone" speed="8.34" length="11.24" shape="387.51,1438.24 383.74,1427.65"/>
    </edge>
    <edge id=":10222749301_2" function="internal">
        <lane id=":10222749301_2_0" index="0" disallow="tram rail_urban rail rail_electric rail_fast ship container cable_car subway aircraft wheelchair scooter drone" speed="3.65" length="4.67" shape="387.51,1438.24 387.88,1436.85 388.51,1436.21 389.39,1436.33 390.54,1437.21"/>
    </edge>
    <edge id=":10222749301_3" function="internal">
        <lane id=":10222749301_3_0" index="0" disallow="tram rail_urban rail rail_electric rail_fast ship container cable_car subway aircraft wheelchair scooter drone" speed="6.59" length="9.16" shape="393.95,1429.90 391.77,1431.08 390.47,1432.68 390.06,1434.73 390.54,1437.21"/>
    </edge>
    <edge id=":10222749301_4" function="internal">
        <lane id=":10222749301_4_0" index="0" disallow="tram rail_urban rail rail_electric rail_fast ship container cable_car subway aircraft wheelchair scooter drone" speed="27.78" length="13.67" shape="393.95,1429.90 381.11,1434.58"/>
    </edge>
    <edge id=":10222749301_5" function="internal">
        <lane id=":10222749301_5_0" index="0" disallow="tram rail_urban rail rail_electric rail_fast ship container cable_car subway aircraft wheelchair scooter drone" speed="7.35" length="11.75" shape="393.95,1429.90 390.22,1430.89 387.27,1430.84 385.11,1429.76 383.74,1427.65"/>
    </edge>
    <edge id=":10222749301_6" function="internal">
        <lane id=":10222749301_6_0" index="0" disallow="tram rail_urban rail rail_electric rail_fast ship container cable_car subway aircraft wheelchair scooter drone" speed="8.34" length="11.33" shape="386.74,1426.53 390.54,1437.21"/>
    </edge>
    <edge id=":10222749301_7" function="internal">
        <lane id=":10222749301_7_0" index="0" disallow="tram rail_urban rail rail_electric rail_fast ship container cable_car subway aircraft wheelchair scooter drone" speed="7.13" length="11.11" shape="386.74,1426.53 387.12,1429.02 386.31,1431.18 384.31,1433.04 381.11,1434.58"/>
    </edge>
    <edge id=":10222749301_8" function="internal">
        <lane id=":10222749301_8_0" index="0" disallow="tram rail_urban rail rail_electric rail_fast ship container cable_car subway aircraft wheelchair scooter drone" speed="2.78" length="4.67" shape="386.74,1426.53 386.40,1427.94 385.79,1428.59 384.90,1428.49 383.74,1427.65"/>
    </edge>
    <edge id=":10222749302_0" function="internal">
        <lane id=":10222749302_0_0" index="0" disallow="tram rail_urban rail rail_electric rail_fast ship container cable_car subway aircraft wheelchair scooter drone" speed="2.78" length="4.67" shape="378.02,1412.28 378.35,1410.88 378.96,1410.23 379.85,1410.32 381.02,1411.17"/>
    </edge>
    <edge id=":10222749303_0" function="internal">
        <lane id=":10222749303_0_0" index="0" disallow="tram rail_urban rail rail_electric rail_fast ship container cable_car subway aircraft wheelchair scooter drone" speed="27.78" length="9.40" shape="348.31,1445.43 339.30,1448.12"/>
    </edge>
    <edge id=":10222749303_1" function="internal">
        <lane id=":10222749303_1_0" index="0" disallow="tram rail_urban rail rail_electric rail_fast ship container cable_car subway aircraft wheelchair scooter drone" speed="6.05" length="7.83" shape="348.31,1445.43 345.60,1446.03 343.54,1446.01 342.14,1445.38 341.39,1444.13"/>
    </edge>
    <edge id=":10222749303_2" function="internal">
        <lane id=":10222749303_2_0" index="0" disallow="tram rail_urban rail rail_electric rail_fast ship container cable_car subway aircraft wheelchair scooter drone" speed="6.15" length="7.80" shape="344.48,1443.29 344.47,1444.73 343.60,1446.02 341.88,1447.14 339.30,1448.12"/>
    </edge>
    <edge id=":10222749303_3" function="internal">
        <lane id=":10222749303_3_0" index="0" disallow="tram rail_urban rail rail_electric rail_fast ship container cable_car subway aircraft wheelchair scooter drone" speed="3.65" length="4.67" shape="344.48,1443.29 344.02,1444.66 343.35,1445.26 342.48,1445.08 341.39,1444.13"/>
    </edge>
    <edge id=":10222749304_0" function="internal">
        <lane id=":10222749304_0_0" index="0" disallow="tram rail_urban rail rail_electric rail_fast ship container cable_car subway aircraft wheelchair scooter drone" speed="3.65" length="4.67" shape="331.84,1408.82 332.30,1407.46 332.97,1406.86 333.84,1407.04 334.93,1407.99"/>
    </edge>
    <edge id=":10222749305_0" function="internal">
        <lane id=":10222749305_0_0" index="0" allow="pedestrian delivery bicycle" speed="3.65" length="4.67" shape="465.90,1205.00 466.93,1203.99 467.79,1203.76 468.49,1204.31 469.04,1205.64"/>
    </edge>
    <edge id=":10222749306_0" function="internal">
        <lane id=":10222749306_0_0" index="0" allow="delivery" speed="4.93" length="5.13" shape="412.95,1220.94 411.53,1221.07 410.54,1221.64 409.98,1222.63 409.86,1224.05"/>
    </edge>
    <edge id=":10222749306_1" function="internal">
        <lane id=":10222749306_1_0" index="0" allow="pedestrian delivery bicycle" speed="3.65" length="4.67" shape="412.95,1220.94 411.79,1220.08 411.43,1219.26 411.86,1218.48 413.10,1217.74"/>
    </edge>
    <edge id=":10222749306_2" function="internal">
        <lane id=":10222749306_2_0" index="0" allow="delivery" speed="5.42" length="5.46" shape="409.31,1214.63 409.61,1215.93 410.34,1216.88 411.51,1217.48 413.10,1217.74"/>
    </edge>
    <edge id=":10222749306_3" function="internal">
        <lane id=":10222749306_3_0" index="0" disallow="pedestrian bicycle tram rail_urban rail rail_electric rail_fast ship container cable_car subway aircraft wheelchair scooter drone" speed="27.78" length="9.43" shape="409.31,1214.63 409.86,1224.05"/>
        <lane id=":10222749306_3_1" index="1" disallow="pedestrian bicycle tram rail_urban rail rail_electric rail_fast ship container cable_car subway aircraft wheelchair scooter drone" speed="27.78" length="9.43" shape="406.11,1214.83 406.67,1224.24"/>
    </edge>
    <edge id=":10222749307_0" function="internal">
        <lane id=":10222749307_0_0" index="0" allow="pedestrian delivery bicycle" speed="3.65" length="4.67" shape="439.53,1219.02 440.69,1219.87 441.05,1220.69 440.61,1221.47 439.37,1222.21"/>
    </edge>
    <edge id=":10222749308_0" function="internal">
        <lane id=":10222749308_0_0" index="0" allow="delivery" speed="4.96" length="5.10" shape="410.11,1114.69 408.70,1114.65 407.65,1115.08 406.96,1115.98 406.63,1117.35"/>
    </edge>
    <edge id=":10222749308_1" function="internal">
        <lane id=":10222749308_1_0" index="0" allow="pedestrian delivery bicycle" speed="3.65" length="4.67" shape="410.11,1114.69 409.07,1113.70 408.81,1112.84 409.34,1112.12 410.66,1111.54"/>
    </edge>
    <edge id=":10222749308_2" function="internal">
        <lane id=":10222749308_2_0" index="0" allow="delivery" speed="5.31" length="5.33" shape="407.51,1107.98 407.60,1109.31 408.16,1110.35 409.18,1111.09 410.66,1111.54"/>
    </edge>
    <edge id=":10222749308_3" function="internal">
        <lane id=":10222749308_3_0" index="0" disallow="pedestrian bicycle tram rail_urban rail rail_electric rail_fast ship container cable_car subway aircraft wheelchair scooter drone" speed="27.78" length="9.42" shape="407.51,1107.98 406.63,1117.35"/>
        <lane id=":10222749308_3_1" index="1" disallow="pedestrian bicycle tram rail_urban rail rail_electric rail_fast ship container cable_car subway aircraft wheelchair scooter drone" speed="27.78" length="9.42" shape="404.33,1107.67 403.44,1117.05"/>
    </edge>
    <edge id=":10222749309_0" function="internal">
        <lane id=":10222749309_0_0" index="0" allow="pedestrian delivery bicycle" speed="5.56" length="9.75" shape="431.02,1117.97 421.37,1116.65"/>
    </edge>
    <edge id=":10222749309_1" function="internal">
        <lane id=":10222749309_1_0" index="0" allow="pedestrian delivery bicycle" speed="5.56" length="10.36" shape="431.02,1117.97 428.25,1117.29 426.40,1115.88 425.47,1113.74 425.46,1110.89"/>
    </edge>
    <edge id=":10222749309_2" function="internal">
        <lane id=":10222749309_2_0" index="0" allow="pedestrian delivery bicycle" speed="3.65" length="4.67" shape="431.02,1117.97 429.91,1117.06 429.59,1116.22 430.07,1115.46 431.34,1114.79"/>
    </edge>
    <edge id=":10222749309_3" function="internal">
        <lane id=":10222749309_3_0" index="0" allow="pedestrian delivery bicycle" speed="5.00" length="5.05" shape="428.63,1111.34 428.64,1112.73 429.09,1113.77 429.99,1114.45 431.34,1114.79"/>
    </edge>
    <edge id=":10222749309_4" function="internal">
        <lane id=":10222749309_4_0" index="0" allow="pedestrian delivery bicycle" speed="5.56" length="10.34" shape="428.63,1111.34 427.84,1114.08 426.36,1115.88 424.21,1116.73 421.37,1116.65"/>
    </edge>
    <edge id=":10222749309_5" function="internal">
        <lane id=":10222749309_5_0" index="0" allow="pedestrian delivery bicycle" speed="3.65" length="4.67" shape="428.63,1111.34 427.67,1112.41 426.83,1112.70 426.09,1112.19 425.46,1110.89"/>
    </edge>
    <edge id=":10222749309_6" function="internal">
        <lane id=":10222749309_6_0" index="0" allow="pedestrian delivery bicycle" speed="5.02" length="5.06" shape="421.91,1113.50 423.30,1113.54 424.35,1113.12 425.08,1112.23 425.46,1110.89"/>
    </edge>
    <edge id=":10222749309_7" function="internal">
        <lane id=":10222749309_7_0" index="0" allow="pedestrian delivery bicycle" speed="5.56" length="9.51" shape="421.91,1113.50 431.34,1114.79"/>
    </edge>
    <edge id=":10222749309_8" function="internal">
        <lane id=":10222749309_8_0" index="0" allow="pedestrian delivery bicycle" speed="3.65" length="4.67" shape="421.91,1113.50 422.96,1114.49 423.22,1115.35 422.69,1116.07 421.37,1116.65"/>
    </edge>
    <edge id=":10222749310_0" function="internal">
        <lane id=":10222749310_0_0" index="0" allow="pedestrian delivery bicycle" speed="3.65" length="4.67" shape="450.33,1116.69 451.45,1117.61 451.77,1118.44 451.29,1119.20 450.02,1119.88"/>
    </edge>
    <edge id=":10222749312_0" function="internal">
        <lane id=":10222749312_0_0" index="0" allow="pedestrian delivery bicycle" speed="3.65" length="4.67" shape="440.19,1093.66 441.35,1094.52 441.72,1095.34 441.28,1096.12 440.04,1096.86"/>
    </edge>
    <edge id=":10222749313_0" function="internal">
        <lane id=":10222749313_0_0" index="0" allow="delivery" speed="4.99" length="5.06" shape="414.52,1080.27 413.13,1080.18 412.07,1080.56 411.33,1081.42 410.91,1082.76"/>
    </edge>
    <edge id=":10222749313_1" function="internal">
        <lane id=":10222749313_1_0" index="0" allow="pedestrian delivery bicycle" speed="3.65" length="4.67" shape="414.52,1080.27 413.51,1079.24 413.29,1078.37 413.84,1077.67 415.18,1077.13"/>
    </edge>
    <edge id=":10222749313_2" function="internal">
        <lane id=":10222749313_2_0" index="0" allow="delivery" speed="5.20" length="5.19" shape="412.40,1073.47 412.39,1074.82 412.85,1075.88 413.78,1076.65 415.18,1077.13"/>
    </edge>
    <edge id=":10222749313_3" function="internal">
        <lane id=":10222749313_3_0" index="0" disallow="pedestrian bicycle tram rail_urban rail rail_electric rail_fast ship container cable_car subway aircraft wheelchair scooter drone" speed="27.78" length="9.41" shape="412.40,1073.47 410.91,1082.76"/>
        <lane id=":10222749313_3_1" index="1" disallow="pedestrian bicycle tram rail_urban rail rail_electric rail_fast ship container cable_car subway aircraft wheelchair scooter drone" speed="27.78" length="9.41" shape="409.24,1072.96 407.75,1082.25"/>
    </edge>